
Version,
  23.1;                                   !- Version Identifier

Timestep,
  5;                                      !- Number of Timesteps per Hour

RunPeriod,
  Run Period 1,                           !- Name
  10,                                      !- Begin Month
  1,                                      !- Begin Day of Month
  2006,                                   !- Begin Year
  10,                                     !- End Month 12
  6,                                      !- End Day of Month 31
  2006,                                   !- End Year
  Sunday,                                 !- Day of Week for Start Day
  No,                                     !- Use Weather File Holidays and Special Days
  No,                                     !- Use Weather File Daylight Saving Period
  No,                                     !- Apply Weekend Holiday Rule
  Yes,                                    !- Use Weather File Rain Indicators
  Yes;                                    !- Use Weather File Snow Indicators

LifeCycleCost:Parameters,
  Life Cycle Cost Parameters,             !- Name
  EndOfYear,                              !- Discounting Convention
  ConstantDollar,                         !- Inflation Approach
  0.03,                                   !- Real Discount Rate
  ,                                       !- Nominal Discount Rate
  ,                                       !- Inflation
  ,                                       !- Base Date Month
  2011,                                   !- Base Date Year
  ,                                       !- Service Date Month
  2011,                                   !- Service Date Year
  25,                                     !- Length of Study Period in Years
  ,                                       !- Tax rate
  None;                                   !- Depreciation Method

LifeCycleCost:UsePriceEscalation,
  U.S. Avg  Commercial-Electricity,       !- Name
  Electricity,                            !- Resource
  2011,                                   !- Escalation Start Year
  January,                                !- Escalation Start Month
  0.9838,                                 !- Year Escalation 1
  0.9730,                                 !- Year Escalation 2
  0.9632,                                 !- Year Escalation 3
  0.9611,                                 !- Year Escalation 4
  0.9571,                                 !- Year Escalation 5
  0.9553,                                 !- Year Escalation 6
  0.9539,                                 !- Year Escalation 7
  0.9521,                                 !- Year Escalation 8
  0.9546,                                 !- Year Escalation 9
  0.9550,                                 !- Year Escalation 10
  0.9553,                                 !- Year Escalation 11
  0.9564,                                 !- Year Escalation 12
  0.9575,                                 !- Year Escalation 13
  0.9596,                                 !- Year Escalation 14
  0.9618,                                 !- Year Escalation 15
  0.9614,                                 !- Year Escalation 16
  0.9618,                                 !- Year Escalation 17
  0.9618,                                 !- Year Escalation 18
  0.9593,                                 !- Year Escalation 19
  0.9589,                                 !- Year Escalation 20
  0.9607,                                 !- Year Escalation 21
  0.9625,                                 !- Year Escalation 22
  0.9650,                                 !- Year Escalation 23
  0.9708,                                 !- Year Escalation 24
  0.9751,                                 !- Year Escalation 25
  0.9762,                                 !- Year Escalation 26
  0.9766,                                 !- Year Escalation 27
  0.9766,                                 !- Year Escalation 28
  0.9769,                                 !- Year Escalation 29
  0.9773;                                 !- Year Escalation 30

LifeCycleCost:UsePriceEscalation,
  U.S. Avg  Commercial-Distillate Oil,    !- Name
  FuelOilNo1,                             !- Resource
  2011,                                   !- Escalation Start Year
  January,                                !- Escalation Start Month
  0.9714,                                 !- Year Escalation 1
  0.9730,                                 !- Year Escalation 2
  0.9942,                                 !- Year Escalation 3
  1.0164,                                 !- Year Escalation 4
  1.0541,                                 !- Year Escalation 5
  1.0928,                                 !- Year Escalation 6
  1.1267,                                 !- Year Escalation 7
  1.1580,                                 !- Year Escalation 8
  1.1792,                                 !- Year Escalation 9
  1.1967,                                 !- Year Escalation 10
  1.2200,                                 !- Year Escalation 11
  1.2333,                                 !- Year Escalation 12
  1.2566,                                 !- Year Escalation 13
  1.2709,                                 !- Year Escalation 14
  1.2826,                                 !- Year Escalation 15
  1.2985,                                 !- Year Escalation 16
  1.3102,                                 !- Year Escalation 17
  1.3250,                                 !- Year Escalation 18
  1.3261,                                 !- Year Escalation 19
  1.3282,                                 !- Year Escalation 20
  1.3324,                                 !- Year Escalation 21
  1.3356,                                 !- Year Escalation 22
  1.3431,                                 !- Year Escalation 23
  1.3510,                                 !- Year Escalation 24
  1.3568,                                 !- Year Escalation 25
  1.3606,                                 !- Year Escalation 26
  1.3637,                                 !- Year Escalation 27
  1.3674,                                 !- Year Escalation 28
  1.3706,                                 !- Year Escalation 29
  1.3743;                                 !- Year Escalation 30

LifeCycleCost:UsePriceEscalation,
  U.S. Avg  Commercial-Residual Oil,      !- Name
  FuelOilNo2,                             !- Resource
  2011,                                   !- Escalation Start Year
  January,                                !- Escalation Start Month
  0.8469,                                 !- Year Escalation 1
  0.8257,                                 !- Year Escalation 2
  0.8681,                                 !- Year Escalation 3
  0.8988,                                 !- Year Escalation 4
  0.9289,                                 !- Year Escalation 5
  0.9604,                                 !- Year Escalation 6
  0.9897,                                 !- Year Escalation 7
  1.0075,                                 !- Year Escalation 8
  1.0314,                                 !- Year Escalation 9
  1.0554,                                 !- Year Escalation 10
  1.0861,                                 !- Year Escalation 11
  1.1278,                                 !- Year Escalation 12
  1.1497,                                 !- Year Escalation 13
  1.1620,                                 !- Year Escalation 14
  1.1743,                                 !- Year Escalation 15
  1.1852,                                 !- Year Escalation 16
  1.1948,                                 !- Year Escalation 17
  1.2037,                                 !- Year Escalation 18
  1.2071,                                 !- Year Escalation 19
  1.2119,                                 !- Year Escalation 20
  1.2139,                                 !- Year Escalation 21
  1.2194,                                 !- Year Escalation 22
  1.2276,                                 !- Year Escalation 23
  1.2365,                                 !- Year Escalation 24
  1.2420,                                 !- Year Escalation 25
  1.2461,                                 !- Year Escalation 26
  1.2509,                                 !- Year Escalation 27
  1.2550,                                 !- Year Escalation 28
  1.2591,                                 !- Year Escalation 29
  1.2638;                                 !- Year Escalation 30

LifeCycleCost:UsePriceEscalation,
  U.S. Avg  Commercial-Natural gas,       !- Name
  NaturalGas,                             !- Resource
  2011,                                   !- Escalation Start Year
  January,                                !- Escalation Start Month
  0.9823,                                 !- Year Escalation 1
  0.9557,                                 !- Year Escalation 2
  0.9279,                                 !- Year Escalation 3
  0.9257,                                 !- Year Escalation 4
  0.9346,                                 !- Year Escalation 5
  0.9412,                                 !- Year Escalation 6
  0.9512,                                 !- Year Escalation 7
  0.9645,                                 !- Year Escalation 8
  0.9856,                                 !- Year Escalation 9
  1.0067,                                 !- Year Escalation 10
  1.0222,                                 !- Year Escalation 11
  1.0410,                                 !- Year Escalation 12
  1.0610,                                 !- Year Escalation 13
  1.0787,                                 !- Year Escalation 14
  1.0942,                                 !- Year Escalation 15
  1.1098,                                 !- Year Escalation 16
  1.1220,                                 !- Year Escalation 17
  1.1308,                                 !- Year Escalation 18
  1.1386,                                 !- Year Escalation 19
  1.1486,                                 !- Year Escalation 20
  1.1619,                                 !- Year Escalation 21
  1.1763,                                 !- Year Escalation 22
  1.1918,                                 !- Year Escalation 23
  1.2118,                                 !- Year Escalation 24
  1.2284,                                 !- Year Escalation 25
  1.2439,                                 !- Year Escalation 26
  1.2605,                                 !- Year Escalation 27
  1.2772,                                 !- Year Escalation 28
  1.2938,                                 !- Year Escalation 29
  1.3115;                                 !- Year Escalation 30

LifeCycleCost:UsePriceEscalation,
  U.S. Avg  Commercial-Coal,              !- Name
  Coal,                                   !- Resource
  2011,                                   !- Escalation Start Year
  January,                                !- Escalation Start Month
  0.9970,                                 !- Year Escalation 1
  1.0089,                                 !- Year Escalation 2
  1.0089,                                 !- Year Escalation 3
  0.9941,                                 !- Year Escalation 4
  0.9941,                                 !- Year Escalation 5
  1.0000,                                 !- Year Escalation 6
  1.0030,                                 !- Year Escalation 7
  1.0059,                                 !- Year Escalation 8
  1.0089,                                 !- Year Escalation 9
  1.0119,                                 !- Year Escalation 10
  1.0148,                                 !- Year Escalation 11
  1.0178,                                 !- Year Escalation 12
  1.0208,                                 !- Year Escalation 13
  1.0267,                                 !- Year Escalation 14
  1.0297,                                 !- Year Escalation 15
  1.0356,                                 !- Year Escalation 16
  1.0415,                                 !- Year Escalation 17
  1.0534,                                 !- Year Escalation 18
  1.0564,                                 !- Year Escalation 19
  1.0593,                                 !- Year Escalation 20
  1.0653,                                 !- Year Escalation 21
  1.0712,                                 !- Year Escalation 22
  1.0742,                                 !- Year Escalation 23
  1.0801,                                 !- Year Escalation 24
  1.0831,                                 !- Year Escalation 25
  1.0831,                                 !- Year Escalation 26
  1.0861,                                 !- Year Escalation 27
  1.0890,                                 !- Year Escalation 28
  1.0920,                                 !- Year Escalation 29
  1.0950;                                 !- Year Escalation 30

Building,
  DataCenterModel_Multizone,              !- Name
  -0,                                     !- North Axis {deg}
  City,                                   !- Terrain
  ,                                       !- Loads Convergence Tolerance Value {W}
  ,                                       !- Temperature Convergence Tolerance Value {deltaC}
  ,                                       !- Solar Distribution
  5,                                       !- Maximum Number of Warmup Days
  1;                                       !- Minimum Number of Warmup Days

Zone,
  Thermal Zone 1 hot,                     !- Name
  ,                                       !- Direction of Relative North {deg}
  0,                                      !- X Origin {m}
  0,                                      !- Y Origin {m}
  0,                                      !- Z Origin {m}
  ,                                       !- Type
  1,                                      !- Multiplier
  ,                                       !- Ceiling Height {m}
  ,                                       !- Volume {m3}
  ,                                       !- Floor Area {m2}
  ,                                       !- Zone Inside Convection Algorithm
  ,                                       !- Zone Outside Convection Algorithm
  Yes;                                    !- Part of Total Floor Area

Space,
  Zone_1_Hot_first,                       !- Name
  Thermal Zone 1 hot,                     !- Zone Name
  ,                                       !- Ceiling Height {m}
  ,                                       !- Volume {m3}
  ,                                       !- Floor Area {m2}
  DataCenterSpaceType;                    !- Space Type

SpaceList,
  DataCenterSpaceType,                    !- Name
  Zone_2_Cold,                            !- Space Name 1
  Zone_3_Hot,                             !- Space Name 2
  Zone_6_Cold,                            !- Space Name 3
  Zone_11_Hot_last,                       !- Space Name 4
  Zone_4_Cold,                            !- Space Name 5
  Zone_10_Cold,                           !- Space Name 6
  Zone_1_Hot_first,                       !- Space Name 7
  Zone_8_Cold,                            !- Space Name 8
  Zone_9_Hot,                             !- Space Name 9
  Zone_5_Hot,                             !- Space Name 10
  Zone_7_Hot;                             !- Space Name 11

Lights,
  Ligts_Load_DC,                          !- Name
  DataCenterSpaceType,                    !- Zone or ZoneList or Space or SpaceList Name
  DataCenter Lighting_SCH,                !- Schedule Name
  Watts/Area,                             !- Design Level Calculation Method
  ,                                       !- Lighting Level {W}
  3,                                      !- Watts per Zone Floor Area {W/m2}
  ,                                       !- Watts per Person {W/person}
  0,                                      !- Return Air Fraction
  0.7,                                    !- Fraction Radiant
  0.2,                                    !- Fraction Visible
  1,                                      !- Fraction Replaceable
  General;                                !- End-Use Subcategory

ScheduleTypeLimits,
  Fractional,                             !- Name
  0,                                      !- Lower Limit Value {BasedOnField A3}
  1,                                      !- Upper Limit Value {BasedOnField A3}
  Continuous;                             !- Numeric Type

Schedule:Day:Interval,
  DataCenter Lighting_SCH Default,        !- Name
  Fractional,                             !- Schedule Type Limits Name
  No,                                     !- Interpolate to Timestep
  24:00,                                  !- Time 1 {hh:mm}
  1;                                      !- Value Until Time 1

Schedule:Week:Daily,
  DataCenter Lighting_SCH Week Rule - Jan1-Dec31, !- Name
  DataCenter Lighting_SCH Default,        !- Sunday Schedule:Day Name
  DataCenter Lighting_SCH Default,        !- Monday Schedule:Day Name
  DataCenter Lighting_SCH Default,        !- Tuesday Schedule:Day Name
  DataCenter Lighting_SCH Default,        !- Wednesday Schedule:Day Name
  DataCenter Lighting_SCH Default,        !- Thursday Schedule:Day Name
  DataCenter Lighting_SCH Default,        !- Friday Schedule:Day Name
  DataCenter Lighting_SCH Default,        !- Saturday Schedule:Day Name
  DataCenter Lighting_SCH Default,        !- Holiday Schedule:Day Name
  DataCenter Lighting_SCH Default,        !- SummerDesignDay Schedule:Day Name
  DataCenter Lighting_SCH Default,        !- WinterDesignDay Schedule:Day Name
  DataCenter Lighting_SCH Default,        !- CustomDay1 Schedule:Day Name
  DataCenter Lighting_SCH Default;        !- CustomDay2 Schedule:Day Name

Schedule:Year,
  DataCenter Lighting_SCH,                !- Name
  Fractional,                             !- Schedule Type Limits Name
  DataCenter Lighting_SCH Week Rule - Jan1-Dec31, !- Schedule:Week Name 1
  1,                                      !- Start Month 1
  1,                                      !- Start Day 1
  12,                                     !- End Month 1
  31;                                     !- End Day 1

BuildingSurface:Detailed,
  Face 10,                                !- Name
  Wall,                                   !- Surface Type
  Construction Air Boundary 1,            !- Construction Name
  Thermal Zone 1 hot,                     !- Zone Name
  Zone_1_Hot_first,                       !- Space Name
  Surface,                                !- Outside Boundary Condition
  Face 14,                                !- Outside Boundary Condition Object
  NoSun,                                  !- Sun Exposure
  NoWind,                                 !- Wind Exposure
  ,                                       !- View Factor to Ground
  ,                                       !- Number of Vertices
  3, 0, 6.4384,                           !- X,Y,Z Vertex 1 {m}
  3, 0, 2.4384,                           !- X,Y,Z Vertex 2 {m}
  3, 18, 2.4384,                          !- X,Y,Z Vertex 3 {m}
  3, 18, 6.4384;                          !- X,Y,Z Vertex 4 {m}

BuildingSurface:Detailed,
  Face 11,                                !- Name
  Wall,                                   !- Surface Type
  Typical Insulated Steel Framed Exterior Wall R-20.41, !- Construction Name
  Thermal Zone 1 hot,                     !- Zone Name
  Zone_1_Hot_first,                       !- Space Name
  Outdoors,                               !- Outside Boundary Condition
  ,                                       !- Outside Boundary Condition Object
  SunExposed,                             !- Sun Exposure
  WindExposed,                            !- Wind Exposure
  ,                                       !- View Factor to Ground
  ,                                       !- Number of Vertices
  3, 0, 6.4384,                           !- X,Y,Z Vertex 1 {m}
  0, 0, 6.4384,                           !- X,Y,Z Vertex 2 {m}
  0, 0, 2.4384,                           !- X,Y,Z Vertex 3 {m}
  3, 0, 2.4384;                           !- X,Y,Z Vertex 4 {m}

BuildingSurface:Detailed,
  Face 6,                                 !- Name
  Floor,                                  !- Surface Type
  Typical Interior Floor,                 !- Construction Name
  Thermal Zone 1 hot,                     !- Zone Name
  Zone_1_Hot_first,                       !- Space Name
  Surface,                                !- Outside Boundary Condition
  Surface 4,                              !- Outside Boundary Condition Object
  NoSun,                                  !- Sun Exposure
  NoWind,                                 !- Wind Exposure
  ,                                       !- View Factor to Ground
  ,                                       !- Number of Vertices
  3, 18, 2.4384,                          !- X,Y,Z Vertex 1 {m}
  3, 0, 2.4384,                           !- X,Y,Z Vertex 2 {m}
  0, 0, 2.4384,                           !- X,Y,Z Vertex 3 {m}
  0, 18, 2.4384;                          !- X,Y,Z Vertex 4 {m}

BuildingSurface:Detailed,
  Face 7,                                 !- Name
  Roof,                                   !- Surface Type
  Typical IEAD Roof R-31.25,              !- Construction Name
  Thermal Zone 1 hot,                     !- Zone Name
  Zone_1_Hot_first,                       !- Space Name
  Outdoors,                               !- Outside Boundary Condition
  ,                                       !- Outside Boundary Condition Object
  SunExposed,                             !- Sun Exposure
  WindExposed,                            !- Wind Exposure
  ,                                       !- View Factor to Ground
  ,                                       !- Number of Vertices
  3, 0, 6.4384,                           !- X,Y,Z Vertex 1 {m}
  3, 18, 6.4384,                          !- X,Y,Z Vertex 2 {m}
  0, 18, 6.4384,                          !- X,Y,Z Vertex 3 {m}
  0, 0, 6.4384;                           !- X,Y,Z Vertex 4 {m}

BuildingSurface:Detailed,
  Face 8,                                 !- Name
  Wall,                                   !- Surface Type
  Typical Insulated Steel Framed Exterior Wall R-20.41, !- Construction Name
  Thermal Zone 1 hot,                     !- Zone Name
  Zone_1_Hot_first,                       !- Space Name
  Outdoors,                               !- Outside Boundary Condition
  ,                                       !- Outside Boundary Condition Object
  SunExposed,                             !- Sun Exposure
  WindExposed,                            !- Wind Exposure
  ,                                       !- View Factor to Ground
  ,                                       !- Number of Vertices
  0, 0, 6.4384,                           !- X,Y,Z Vertex 1 {m}
  0, 18, 6.4384,                          !- X,Y,Z Vertex 2 {m}
  0, 18, 2.4384,                          !- X,Y,Z Vertex 3 {m}
  0, 0, 2.4384;                           !- X,Y,Z Vertex 4 {m}

BuildingSurface:Detailed,
  Face 9,                                 !- Name
  Wall,                                   !- Surface Type
  Typical Insulated Steel Framed Exterior Wall R-20.41, !- Construction Name
  Thermal Zone 1 hot,                     !- Zone Name
  Zone_1_Hot_first,                       !- Space Name
  Outdoors,                               !- Outside Boundary Condition
  ,                                       !- Outside Boundary Condition Object
  SunExposed,                             !- Sun Exposure
  WindExposed,                            !- Wind Exposure
  ,                                       !- View Factor to Ground
  ,                                       !- Number of Vertices
  0, 18, 6.4384,                          !- X,Y,Z Vertex 1 {m}
  3, 18, 6.4384,                          !- X,Y,Z Vertex 2 {m}
  3, 18, 2.4384,                          !- X,Y,Z Vertex 3 {m}
  0, 18, 2.4384;                          !- X,Y,Z Vertex 4 {m}

ElectricEquipment,
  Electric Equipment 5,                   !- Name
  Zone_1_Hot_first,                       !- Zone or ZoneList or Space or SpaceList Name
  DataCenter Equipment_SCH,               !- Schedule Name
  Watts/Area,                             !- Design Level Calculation Method
  ,                                       !- Design Level {W}
  1000,                                   !- Watts per Zone Floor Area {W/m2}
  ,                                       !- Watts per Person {W/person}
  ,                                       !- Fraction Latent
  0.12,                                   !- Fraction Radiant
  ,                                       !- Fraction Lost
  General;                                !- End-Use Subcategory

Schedule:Day:Interval,
  DataCenter Equipment_SCH Default,       !- Name
  Fractional,                             !- Schedule Type Limits Name
  No,                                     !- Interpolate to Timestep
  24:00,                                  !- Time 1 {hh:mm}
  1;                                      !- Value Until Time 1

Schedule:Week:Daily,
  DataCenter Equipment_SCH Week Rule - Jan1-Dec31, !- Name
  DataCenter Equipment_SCH Default,       !- Sunday Schedule:Day Name
  DataCenter Equipment_SCH Default,       !- Monday Schedule:Day Name
  DataCenter Equipment_SCH Default,       !- Tuesday Schedule:Day Name
  DataCenter Equipment_SCH Default,       !- Wednesday Schedule:Day Name
  DataCenter Equipment_SCH Default,       !- Thursday Schedule:Day Name
  DataCenter Equipment_SCH Default,       !- Friday Schedule:Day Name
  DataCenter Equipment_SCH Default,       !- Saturday Schedule:Day Name
  DataCenter Equipment_SCH Default,       !- Holiday Schedule:Day Name
  DataCenter Equipment_SCH Summer Design Day, !- SummerDesignDay Schedule:Day Name
  DataCenter Equipment_SCH Winter Design Day, !- WinterDesignDay Schedule:Day Name
  DataCenter Equipment_SCH Default,       !- CustomDay1 Schedule:Day Name
  DataCenter Equipment_SCH Default;       !- CustomDay2 Schedule:Day Name

Schedule:Year,
  DataCenter Equipment_SCH,               !- Name
  Fractional,                             !- Schedule Type Limits Name
  DataCenter Equipment_SCH Week Rule - Jan1-Dec31, !- Schedule:Week Name 1
  1,                                      !- Start Month 1
  1,                                      !- Start Day 1
  12,                                     !- End Month 1
  31;                                     !- End Day 1

Schedule:Day:Interval,
  DataCenter Equipment_SCH Summer Design Day, !- Name
  Fractional,                             !- Schedule Type Limits Name
  No,                                     !- Interpolate to Timestep
  24:00,                                  !- Time 1 {hh:mm}
  1;                                      !- Value Until Time 1

Schedule:Day:Interval,
  DataCenter Equipment_SCH Winter Design Day, !- Name
  Fractional,                             !- Schedule Type Limits Name
  No,                                     !- Interpolate to Timestep
  24:00,                                  !- Time 1 {hh:mm}
  1;                                      !- Value Until Time 1

Zone,
  Thermal Zone 10 cold,                   !- Name
  ,                                       !- Direction of Relative North {deg}
  0,                                      !- X Origin {m}
  0,                                      !- Y Origin {m}
  0,                                      !- Z Origin {m}
  ,                                       !- Type
  1,                                      !- Multiplier
  ,                                       !- Ceiling Height {m}
  ,                                       !- Volume {m3}
  ,                                       !- Floor Area {m2}
  ,                                       !- Zone Inside Convection Algorithm
  ,                                       !- Zone Outside Convection Algorithm
  Yes;                                    !- Part of Total Floor Area

Space,
  Zone_10_Cold,                           !- Name
  Thermal Zone 10 cold,                   !- Zone Name
  ,                                       !- Ceiling Height {m}
  ,                                       !- Volume {m3}
  ,                                       !- Floor Area {m2}
  DataCenterSpaceType;                    !- Space Type

BuildingSurface:Detailed,
  Face 60,                                !- Name
  Floor,                                  !- Surface Type
  Typical Interior Floor,                 !- Construction Name
  Thermal Zone 10 cold,                   !- Zone Name
  Zone_10_Cold,                           !- Space Name
  Surface,                                !- Outside Boundary Condition
  Face 1,                                 !- Outside Boundary Condition Object
  NoSun,                                  !- Sun Exposure
  NoWind,                                 !- Wind Exposure
  ,                                       !- View Factor to Ground
  ,                                       !- Number of Vertices
  28, 18, 2.4384,                         !- X,Y,Z Vertex 1 {m}
  28, 0, 2.4384,                          !- X,Y,Z Vertex 2 {m}
  26, 0, 2.4384,                          !- X,Y,Z Vertex 3 {m}
  26, 18, 2.4384;                         !- X,Y,Z Vertex 4 {m}

BuildingSurface:Detailed,
  Face 61,                                !- Name
  Roof,                                   !- Surface Type
  Typical IEAD Roof R-31.25,              !- Construction Name
  Thermal Zone 10 cold,                   !- Zone Name
  Zone_10_Cold,                           !- Space Name
  Outdoors,                               !- Outside Boundary Condition
  ,                                       !- Outside Boundary Condition Object
  SunExposed,                             !- Sun Exposure
  WindExposed,                            !- Wind Exposure
  ,                                       !- View Factor to Ground
  ,                                       !- Number of Vertices